DESCRIPTION: This is a real output file of PHREEQC geochemical modelling program, created by U.S. geological survey. The program is distributed free in https://www.usgs.gov/software/phreeqc-version-3

***** THE FILE STARTS HERE *****


   Input file: D:\Users\Public\Public Documents\phreeqc\examplesolution.txt
  Output file: D:\Users\Public\Public Documents\phreeqc\examplesolution.txt.out
Database file: C:\Program Files\USGS\phreeqc-3.6.2-15100-x64\database\phreeqc.dat

------------------
Reading data base.
------------------

	SOLUTION_MASTER_SPECIES
	SOLUTION_SPECIES
	PHASES
	EXCHANGE_MASTER_SPECIES
	EXCHANGE_SPECIES
	SURFACE_MASTER_SPECIES
	SURFACE_SPECIES
	RATES
	END
------------------------------------
Reading input data for simulation 1.
------------------------------------

	TITLE --TEST FILE one sample
	SOLUTION	ABC123	
	temp	10	
	pe	-3.849	
	redox		
	units	mg/l
	pH	8.8	
	F	1.3	
	Br	53	
	Ca	2020	
	Cl	7620	
	C(4)	4.0645	
	Mg	2.3	
	K	4.7	
	Si	9.7	
	Na	2750	
	Sr	15	
	S(6)	6.2	as SO4
	S(-2)	3.9	
	END		
-----
TITLE
-----

 --TEST FILE one sample

-------------------------------------------
Beginning of initial solution calculations.
-------------------------------------------

Initial solution 1.	ABC123	

-----------------------------Solution composition------------------------------

	Elements           Molality       Moles

	Br                6.717e-04   6.717e-04
	C(4)              6.745e-05   6.745e-05
	Ca                5.104e-02   5.104e-02
	Cl                2.177e-01   2.177e-01
	F                 6.929e-05   6.929e-05
	K                 1.217e-04   1.217e-04
	Mg                9.580e-05   9.580e-05
	Na                1.211e-01   1.211e-01
	S(-2)             1.232e-04   1.232e-04
	S(6)              6.536e-05   6.536e-05
	Si                1.635e-04   1.635e-04
	Sr                1.734e-04   1.734e-04

----------------------------Description of solution----------------------------

                                       pH  =   8.800    
                                       pe  =  -3.849    
      Specific Conductance (µS/cm,  10°C)  = 15343
                          Density (g/cm³)  =   1.00954
                               Volume (L)  =   1.00309
                        Activity of water  =   0.993
                 Ionic strength (mol/kgw)  =   2.725e-01
                       Mass of water (kg)  =   1.000e+00
                 Total alkalinity (eq/kg)  =   2.216e-04
                       Total CO2 (mol/kg)  =   6.745e-05
                         Temperature (°C)  =  10.00
                  Electrical balance (eq)  =   5.120e-03
 Percent error, 100*(Cat-|An|)/(Cat+|An|)  =   1.16
                               Iterations  =   5
                                  Total H  = 1.110133e+02
                                  Total O  = 5.550734e+01

---------------------------------Redox couples---------------------------------

	Redox couple             pe  Eh (volts)

	S(-2)/S(6)          -5.5161     -0.3099

----------------------------Distribution of species----------------------------

                                               Log       Log       Log    mole V
   Species          Molality    Activity  Molality  Activity     Gamma   cm³/mol

   OH-             2.683e-06   1.844e-06    -5.571    -5.734    -0.163     -4.31
   H+              2.007e-09   1.585e-09    -8.697    -8.800    -0.103      0.00
   H2O             5.551e+01   9.933e-01     1.744    -0.003     0.000     18.02
Br            6.717e-04
   Br-             6.717e-04   4.520e-04    -3.173    -3.345    -0.172     23.96
C(4)          6.745e-05
   HCO3-           4.348e-05   3.184e-05    -4.362    -4.497    -0.135     24.32
   CaCO3           1.301e-05   1.385e-05    -4.886    -4.858     0.027    -14.66
   CaHCO3+         6.173e-06   4.591e-06    -5.210    -5.338    -0.129      9.13
   CO3-2           2.273e-06   6.532e-07    -5.643    -6.185    -0.542     -5.37
   NaHCO3          1.647e-06   1.754e-06    -5.783    -5.756     0.027      1.80
   NaCO3-          6.627e-07   4.912e-07    -6.179    -6.309    -0.130     -1.45
   CO2             1.386e-07   1.476e-07    -6.858    -6.831     0.027     33.66
   SrHCO3+         2.104e-08   1.541e-08    -7.677    -7.812    -0.135     (0)  
   MgHCO3+         1.606e-08   1.125e-08    -7.794    -7.949    -0.155      5.13
   MgCO3           1.464e-08   1.559e-08    -7.835    -7.807     0.027    -17.07
   SrCO3           1.329e-08   1.415e-08    -7.876    -7.849     0.027    -14.20
   (CO2)2          2.189e-16   2.330e-16   -15.660   -15.633     0.027     67.32
Ca            5.104e-02
   Ca+2            5.099e-02   1.552e-02    -1.292    -1.809    -0.517    -17.55
   CaSO4           2.278e-05   2.425e-05    -4.642    -4.615     0.027      6.79
   CaCO3           1.301e-05   1.385e-05    -4.886    -4.858     0.027    -14.66
   CaHCO3+         6.173e-06   4.591e-06    -5.210    -5.338    -0.129      9.13
   CaOH+           2.178e-06   1.614e-06    -5.662    -5.792    -0.130     (0)  
   CaHSO4+         2.826e-13   2.095e-13   -12.549   -12.679    -0.130     (0)  
Cl            2.177e-01
   Cl-             2.177e-01   1.520e-01    -0.662    -0.818    -0.156     17.78
F             6.929e-05
   F-              6.696e-05   4.602e-05    -4.174    -4.337    -0.163     -1.28
   NaF             2.228e-06   2.372e-06    -5.652    -5.625     0.027      6.55
   MgF+            1.009e-07   7.192e-08    -6.996    -7.143    -0.147    -10.40
   HF              7.912e-11   8.425e-11   -10.102   -10.074     0.027     11.64
   HF2-            1.735e-14   1.286e-14   -13.761   -13.891    -0.130     21.49
   SiF6-2          2.344e-34   6.433e-35   -33.630   -34.192    -0.562     42.79
H(0)          1.951e-13
   H2              9.756e-14   1.039e-13   -13.011   -12.983     0.027     28.63
K             1.217e-04
   K+              1.217e-04   8.444e-05    -3.915    -4.073    -0.159      8.78
   KSO4-           6.086e-09   4.456e-09    -8.216    -8.351    -0.135     33.93
Mg            9.580e-05
   Mg+2            9.560e-05   3.148e-05    -4.020    -4.502    -0.482    -20.35
   MgF+            1.009e-07   7.192e-08    -6.996    -7.143    -0.147    -10.40
   MgSO4           4.565e-08   4.861e-08    -7.341    -7.313     0.027      5.12
   MgOH+           2.286e-08   1.721e-08    -7.641    -7.764    -0.123     (0)  
   MgHCO3+         1.606e-08   1.125e-08    -7.794    -7.949    -0.155      5.13
   MgCO3           1.464e-08   1.559e-08    -7.835    -7.807     0.027    -17.07
Na            1.211e-01
   Na+             1.211e-01   8.958e-02    -0.917    -1.048    -0.131     -1.77
   NaSO4-          5.488e-06   4.018e-06    -5.261    -5.396    -0.135     18.25
   NaF             2.228e-06   2.372e-06    -5.652    -5.625     0.027      6.55
   NaHCO3          1.647e-06   1.754e-06    -5.783    -5.756     0.027      1.80
   NaCO3-          6.627e-07   4.912e-07    -6.179    -6.309    -0.130     -1.45
   NaOH            1.551e-17   1.652e-17   -16.809   -16.782     0.027     (0)  
O(0)          0.000e+00
   O2              0.000e+00   0.000e+00   -71.543   -71.516     0.027     28.95
S(-2)         1.232e-04
   HS-             1.213e-04   8.340e-05    -3.916    -4.079    -0.163     20.01
   H2S             1.821e-06   1.939e-06    -5.740    -5.712     0.027     37.09
   S-2             7.850e-09   2.154e-09    -8.105    -8.667    -0.562     (0)  
S(6)          6.536e-05
   SO4-2           3.696e-05   9.892e-06    -4.432    -5.005    -0.572     13.35
   CaSO4           2.278e-05   2.425e-05    -4.642    -4.615     0.027      6.79
   NaSO4-          5.488e-06   4.018e-06    -5.261    -5.396    -0.135     18.25
   SrSO4           7.952e-08   8.467e-08    -7.100    -7.072     0.027     23.52
   MgSO4           4.565e-08   4.861e-08    -7.341    -7.313     0.027      5.12
   KSO4-           6.086e-09   4.456e-09    -8.216    -8.351    -0.135     33.93
   HSO4-           1.515e-12   1.123e-12   -11.820   -11.950    -0.130     39.29
   CaHSO4+         2.826e-13   2.095e-13   -12.549   -12.679    -0.130     (0)  
Si            1.635e-04
   H4SiO4          1.515e-04   1.613e-04    -3.820    -3.792     0.027     53.67
   H3SiO4-         1.203e-05   8.427e-06    -4.920    -5.074    -0.155     27.79
   H2SiO4-2        4.324e-10   1.242e-10    -9.364    -9.906    -0.542     (0)  
   SiF6-2          2.344e-34   6.433e-35   -33.630   -34.192    -0.562     42.79
Sr            1.734e-04
   Sr+2            1.732e-04   5.287e-05    -3.761    -4.277    -0.515    -16.62
   SrSO4           7.952e-08   8.467e-08    -7.100    -7.072     0.027     23.52
   SrHCO3+         2.104e-08   1.541e-08    -7.677    -7.812    -0.135     (0)  
   SrCO3           1.329e-08   1.415e-08    -7.876    -7.849     0.027    -14.20
   SrOH+           2.348e-09   1.699e-09    -8.629    -8.770    -0.140     (0)  

------------------------------Saturation indices-------------------------------

  Phase               SI** log IAP   log K(283 K,   1 atm)

  Anhydrite        -2.69     -6.81   -4.12  CaSO4
  Aragonite         0.26     -7.99   -8.26  CaCO3
  Calcite           0.42     -7.99   -8.41  CaCO3
  Celestite        -2.70     -9.28   -6.58  SrSO4
  Chalcedony       -0.05     -3.79   -3.73  SiO2
  Chrysotile       -2.45     31.71   34.16  Mg3Si2O5(OH)4
  CO2(g)           -5.56     -6.83   -1.27  CO2
  Dolomite         -1.96    -18.68  -16.72  CaMg(CO3)2
  Fluorite          0.31    -10.48  -10.80  CaF2
  Gypsum           -2.22     -6.82   -4.60  CaSO4:2H2O
  H2(g)            -9.93    -12.98   -3.05  H2
  H2O(g)           -1.91     -0.00    1.91  H2O
  H2S(g)           -4.85    -12.88   -8.03  H2S
  Halite           -3.42     -1.87    1.56  NaCl
  O2(g)           -68.75    -71.52   -2.77  O2
  Quartz            0.43     -3.79   -4.21  SiO2
  Sepiolite        -1.36     14.82   16.18  Mg2Si3O7.5OH:3H2O
  Sepiolite(d)     -3.84     14.82   18.66  Mg2Si3O7.5OH:3H2O
  SiO2(a)          -0.95     -3.79   -2.84  SiO2
  Strontianite     -1.17    -10.46   -9.29  SrCO3
  Sulfur           -1.06      4.19    5.25  S
  Sylvite          -5.71     -4.89    0.82  KCl
  Talc              0.94     24.14   23.20  Mg3Si4O10(OH)2

**For a gas, SI = log10(fugacity). Fugacity = pressure * phi / 1 atm.
  For ideal gases, phi = 1.

------------------
End of simulation.
------------------

-------------------------------------
Reading input data for simulation 2.
-------------------------------------

--------------------------------
End of Run after 2.371 Seconds.
--------------------------------

